.SUBCKT layer2 vdd vss in1 in2 in3 in4 in5 in6 in7 in8 in9 in10 in11 in12 in13 in14 in15 in16 in17 in18 in19 in20 in21 in22 in23 in24 in25 in26 in27 in28 in29 in30 in31 in32 in33 in34 in35 in36 in37 in38 in39 in40 in41 in42 in43 in44 in45 in46 in47 in48 in49 in50 in51 in52 in53 in54 in55 in56 in57 in58 in59 in60 in61 in62 in63 in64 in65 in66 in67 in68 in69 in70 in71 in72 in73 in74 in75 in76 in77 in78 in79 in80 in81 in82 in83 in84 in85 in86 in87 in88 in89 in90 in91 in92 in93 in94 in95 in96 in97 in98 in99 in100 out1 out2 out3 out4 out5 out6 out7 out8 out9 out10 

**********Non-Negative Weighted Array****************
Rwpos1_1 in1 sp1 22281692032865348.000000
Rwpos1_2 in1 sp2 22281692032865348.000000
Rwpos1_3 in1 sp3 22281692032865348.000000
Rwpos1_4 in1 sp4 21220659078919380.000000
Rwpos1_5 in1 sp5 21220659078919380.000000
Rwpos1_6 in1 sp6 21220659078919380.000000
Rwpos1_7 in1 sp7 21220659078919380.000000
Rwpos1_8 in1 sp8 22281692032865348.000000
Rwpos1_9 in1 sp9 21220659078919380.000000
Rwpos1_10 in1 sp10 21220659078919380.000000
Rwpos2_1 in2 sp1 21220659078919380.000000
Rwpos2_2 in2 sp2 21220659078919380.000000
Rwpos2_3 in2 sp3 21220659078919380.000000
Rwpos2_4 in2 sp4 21220659078919380.000000
Rwpos2_5 in2 sp5 21220659078919380.000000
Rwpos2_6 in2 sp6 22281692032865348.000000
Rwpos2_7 in2 sp7 21220659078919380.000000
Rwpos2_8 in2 sp8 21220659078919380.000000
Rwpos2_9 in2 sp9 22281692032865348.000000
Rwpos2_10 in2 sp10 21220659078919380.000000
Rwpos3_1 in3 sp1 21220659078919380.000000
Rwpos3_2 in3 sp2 21220659078919380.000000
Rwpos3_3 in3 sp3 21220659078919380.000000
Rwpos3_4 in3 sp4 22281692032865348.000000
Rwpos3_5 in3 sp5 21220659078919380.000000
Rwpos3_6 in3 sp6 22281692032865348.000000
Rwpos3_7 in3 sp7 21220659078919380.000000
Rwpos3_8 in3 sp8 22281692032865348.000000
Rwpos3_9 in3 sp9 21220659078919380.000000
Rwpos3_10 in3 sp10 21220659078919380.000000
Rwpos4_1 in4 sp1 22281692032865348.000000
Rwpos4_2 in4 sp2 21220659078919380.000000
Rwpos4_3 in4 sp3 21220659078919380.000000
Rwpos4_4 in4 sp4 21220659078919380.000000
Rwpos4_5 in4 sp5 21220659078919380.000000
Rwpos4_6 in4 sp6 22281692032865348.000000
Rwpos4_7 in4 sp7 21220659078919380.000000
Rwpos4_8 in4 sp8 22281692032865348.000000
Rwpos4_9 in4 sp9 22281692032865348.000000
Rwpos4_10 in4 sp10 21220659078919380.000000
Rwpos5_1 in5 sp1 22281692032865348.000000
Rwpos5_2 in5 sp2 21220659078919380.000000
Rwpos5_3 in5 sp3 21220659078919380.000000
Rwpos5_4 in5 sp4 21220659078919380.000000
Rwpos5_5 in5 sp5 21220659078919380.000000
Rwpos5_6 in5 sp6 22281692032865348.000000
Rwpos5_7 in5 sp7 22281692032865348.000000
Rwpos5_8 in5 sp8 21220659078919380.000000
Rwpos5_9 in5 sp9 21220659078919380.000000
Rwpos5_10 in5 sp10 21220659078919380.000000
Rwpos6_1 in6 sp1 21220659078919380.000000
Rwpos6_2 in6 sp2 22281692032865348.000000
Rwpos6_3 in6 sp3 21220659078919380.000000
Rwpos6_4 in6 sp4 22281692032865348.000000
Rwpos6_5 in6 sp5 22281692032865348.000000
Rwpos6_6 in6 sp6 21220659078919380.000000
Rwpos6_7 in6 sp7 21220659078919380.000000
Rwpos6_8 in6 sp8 21220659078919380.000000
Rwpos6_9 in6 sp9 21220659078919380.000000
Rwpos6_10 in6 sp10 21220659078919380.000000
Rwpos7_1 in7 sp1 21220659078919380.000000
Rwpos7_2 in7 sp2 21220659078919380.000000
Rwpos7_3 in7 sp3 22281692032865348.000000
Rwpos7_4 in7 sp4 22281692032865348.000000
Rwpos7_5 in7 sp5 21220659078919380.000000
Rwpos7_6 in7 sp6 21220659078919380.000000
Rwpos7_7 in7 sp7 21220659078919380.000000
Rwpos7_8 in7 sp8 21220659078919380.000000
Rwpos7_9 in7 sp9 21220659078919380.000000
Rwpos7_10 in7 sp10 22281692032865348.000000
Rwpos8_1 in8 sp1 21220659078919380.000000
Rwpos8_2 in8 sp2 22281692032865348.000000
Rwpos8_3 in8 sp3 22281692032865348.000000
Rwpos8_4 in8 sp4 21220659078919380.000000
Rwpos8_5 in8 sp5 21220659078919380.000000
Rwpos8_6 in8 sp6 21220659078919380.000000
Rwpos8_7 in8 sp7 22281692032865348.000000
Rwpos8_8 in8 sp8 22281692032865348.000000
Rwpos8_9 in8 sp9 22281692032865348.000000
Rwpos8_10 in8 sp10 21220659078919380.000000
Rwpos9_1 in9 sp1 22281692032865348.000000
Rwpos9_2 in9 sp2 21220659078919380.000000
Rwpos9_3 in9 sp3 21220659078919380.000000
Rwpos9_4 in9 sp4 21220659078919380.000000
Rwpos9_5 in9 sp5 22281692032865348.000000
Rwpos9_6 in9 sp6 21220659078919380.000000
Rwpos9_7 in9 sp7 22281692032865348.000000
Rwpos9_8 in9 sp8 21220659078919380.000000
Rwpos9_9 in9 sp9 22281692032865348.000000
Rwpos9_10 in9 sp10 21220659078919380.000000
Rwpos10_1 in10 sp1 21220659078919380.000000
Rwpos10_2 in10 sp2 21220659078919380.000000
Rwpos10_3 in10 sp3 21220659078919380.000000
Rwpos10_4 in10 sp4 21220659078919380.000000
Rwpos10_5 in10 sp5 22281692032865348.000000
Rwpos10_6 in10 sp6 22281692032865348.000000
Rwpos10_7 in10 sp7 21220659078919380.000000
Rwpos10_8 in10 sp8 22281692032865348.000000
Rwpos10_9 in10 sp9 21220659078919380.000000
Rwpos10_10 in10 sp10 21220659078919380.000000
Rwpos11_1 in11 sp1 22281692032865348.000000
Rwpos11_2 in11 sp2 21220659078919380.000000
Rwpos11_3 in11 sp3 21220659078919380.000000
Rwpos11_4 in11 sp4 21220659078919380.000000
Rwpos11_5 in11 sp5 21220659078919380.000000
Rwpos11_6 in11 sp6 21220659078919380.000000
Rwpos11_7 in11 sp7 21220659078919380.000000
Rwpos11_8 in11 sp8 22281692032865348.000000
Rwpos11_9 in11 sp9 21220659078919380.000000
Rwpos11_10 in11 sp10 22281692032865348.000000
Rwpos12_1 in12 sp1 21220659078919380.000000
Rwpos12_2 in12 sp2 21220659078919380.000000
Rwpos12_3 in12 sp3 21220659078919380.000000
Rwpos12_4 in12 sp4 22281692032865348.000000
Rwpos12_5 in12 sp5 21220659078919380.000000
Rwpos12_6 in12 sp6 22281692032865348.000000
Rwpos12_7 in12 sp7 21220659078919380.000000
Rwpos12_8 in12 sp8 22281692032865348.000000
Rwpos12_9 in12 sp9 21220659078919380.000000
Rwpos12_10 in12 sp10 21220659078919380.000000
Rwpos13_1 in13 sp1 21220659078919380.000000
Rwpos13_2 in13 sp2 21220659078919380.000000
Rwpos13_3 in13 sp3 21220659078919380.000000
Rwpos13_4 in13 sp4 21220659078919380.000000
Rwpos13_5 in13 sp5 21220659078919380.000000
Rwpos13_6 in13 sp6 22281692032865348.000000
Rwpos13_7 in13 sp7 21220659078919380.000000
Rwpos13_8 in13 sp8 21220659078919380.000000
Rwpos13_9 in13 sp9 21220659078919380.000000
Rwpos13_10 in13 sp10 22281692032865348.000000
Rwpos14_1 in14 sp1 22281692032865348.000000
Rwpos14_2 in14 sp2 22281692032865348.000000
Rwpos14_3 in14 sp3 21220659078919380.000000
Rwpos14_4 in14 sp4 21220659078919380.000000
Rwpos14_5 in14 sp5 22281692032865348.000000
Rwpos14_6 in14 sp6 21220659078919380.000000
Rwpos14_7 in14 sp7 22281692032865348.000000
Rwpos14_8 in14 sp8 22281692032865348.000000
Rwpos14_9 in14 sp9 21220659078919380.000000
Rwpos14_10 in14 sp10 21220659078919380.000000
Rwpos15_1 in15 sp1 21220659078919380.000000
Rwpos15_2 in15 sp2 22281692032865348.000000
Rwpos15_3 in15 sp3 21220659078919380.000000
Rwpos15_4 in15 sp4 21220659078919380.000000
Rwpos15_5 in15 sp5 21220659078919380.000000
Rwpos15_6 in15 sp6 21220659078919380.000000
Rwpos15_7 in15 sp7 21220659078919380.000000
Rwpos15_8 in15 sp8 21220659078919380.000000
Rwpos15_9 in15 sp9 21220659078919380.000000
Rwpos15_10 in15 sp10 22281692032865348.000000
Rwpos16_1 in16 sp1 22281692032865348.000000
Rwpos16_2 in16 sp2 22281692032865348.000000
Rwpos16_3 in16 sp3 22281692032865348.000000
Rwpos16_4 in16 sp4 22281692032865348.000000
Rwpos16_5 in16 sp5 21220659078919380.000000
Rwpos16_6 in16 sp6 21220659078919380.000000
Rwpos16_7 in16 sp7 21220659078919380.000000
Rwpos16_8 in16 sp8 21220659078919380.000000
Rwpos16_9 in16 sp9 21220659078919380.000000
Rwpos16_10 in16 sp10 22281692032865348.000000
Rwpos17_1 in17 sp1 21220659078919380.000000
Rwpos17_2 in17 sp2 22281692032865348.000000
Rwpos17_3 in17 sp3 21220659078919380.000000
Rwpos17_4 in17 sp4 22281692032865348.000000
Rwpos17_5 in17 sp5 22281692032865348.000000
Rwpos17_6 in17 sp6 21220659078919380.000000
Rwpos17_7 in17 sp7 21220659078919380.000000
Rwpos17_8 in17 sp8 21220659078919380.000000
Rwpos17_9 in17 sp9 22281692032865348.000000
Rwpos17_10 in17 sp10 21220659078919380.000000
Rwpos18_1 in18 sp1 22281692032865348.000000
Rwpos18_2 in18 sp2 21220659078919380.000000
Rwpos18_3 in18 sp3 21220659078919380.000000
Rwpos18_4 in18 sp4 21220659078919380.000000
Rwpos18_5 in18 sp5 21220659078919380.000000
Rwpos18_6 in18 sp6 22281692032865348.000000
Rwpos18_7 in18 sp7 22281692032865348.000000
Rwpos18_8 in18 sp8 21220659078919380.000000
Rwpos18_9 in18 sp9 21220659078919380.000000
Rwpos18_10 in18 sp10 22281692032865348.000000
Rwpos19_1 in19 sp1 21220659078919380.000000
Rwpos19_2 in19 sp2 21220659078919380.000000
Rwpos19_3 in19 sp3 21220659078919380.000000
Rwpos19_4 in19 sp4 22281692032865348.000000
Rwpos19_5 in19 sp5 21220659078919380.000000
Rwpos19_6 in19 sp6 21220659078919380.000000
Rwpos19_7 in19 sp7 21220659078919380.000000
Rwpos19_8 in19 sp8 21220659078919380.000000
Rwpos19_9 in19 sp9 22281692032865348.000000
Rwpos19_10 in19 sp10 22281692032865348.000000
Rwpos20_1 in20 sp1 21220659078919380.000000
Rwpos20_2 in20 sp2 22281692032865348.000000
Rwpos20_3 in20 sp3 21220659078919380.000000
Rwpos20_4 in20 sp4 21220659078919380.000000
Rwpos20_5 in20 sp5 22281692032865348.000000
Rwpos20_6 in20 sp6 22281692032865348.000000
Rwpos20_7 in20 sp7 21220659078919380.000000
Rwpos20_8 in20 sp8 21220659078919380.000000
Rwpos20_9 in20 sp9 22281692032865348.000000
Rwpos20_10 in20 sp10 21220659078919380.000000
Rwpos21_1 in21 sp1 21220659078919380.000000
Rwpos21_2 in21 sp2 21220659078919380.000000
Rwpos21_3 in21 sp3 22281692032865348.000000
Rwpos21_4 in21 sp4 21220659078919380.000000
Rwpos21_5 in21 sp5 22281692032865348.000000
Rwpos21_6 in21 sp6 22281692032865348.000000
Rwpos21_7 in21 sp7 21220659078919380.000000
Rwpos21_8 in21 sp8 22281692032865348.000000
Rwpos21_9 in21 sp9 21220659078919380.000000
Rwpos21_10 in21 sp10 21220659078919380.000000
Rwpos22_1 in22 sp1 21220659078919380.000000
Rwpos22_2 in22 sp2 22281692032865348.000000
Rwpos22_3 in22 sp3 21220659078919380.000000
Rwpos22_4 in22 sp4 22281692032865348.000000
Rwpos22_5 in22 sp5 22281692032865348.000000
Rwpos22_6 in22 sp6 21220659078919380.000000
Rwpos22_7 in22 sp7 21220659078919380.000000
Rwpos22_8 in22 sp8 22281692032865348.000000
Rwpos22_9 in22 sp9 21220659078919380.000000
Rwpos22_10 in22 sp10 21220659078919380.000000
Rwpos23_1 in23 sp1 21220659078919380.000000
Rwpos23_2 in23 sp2 22281692032865348.000000
Rwpos23_3 in23 sp3 21220659078919380.000000
Rwpos23_4 in23 sp4 22281692032865348.000000
Rwpos23_5 in23 sp5 21220659078919380.000000
Rwpos23_6 in23 sp6 22281692032865348.000000
Rwpos23_7 in23 sp7 21220659078919380.000000
Rwpos23_8 in23 sp8 22281692032865348.000000
Rwpos23_9 in23 sp9 21220659078919380.000000
Rwpos23_10 in23 sp10 21220659078919380.000000
Rwpos24_1 in24 sp1 21220659078919380.000000
Rwpos24_2 in24 sp2 22281692032865348.000000
Rwpos24_3 in24 sp3 21220659078919380.000000
Rwpos24_4 in24 sp4 21220659078919380.000000
Rwpos24_5 in24 sp5 22281692032865348.000000
Rwpos24_6 in24 sp6 21220659078919380.000000
Rwpos24_7 in24 sp7 22281692032865348.000000
Rwpos24_8 in24 sp8 22281692032865348.000000
Rwpos24_9 in24 sp9 22281692032865348.000000
Rwpos24_10 in24 sp10 21220659078919380.000000
Rwpos25_1 in25 sp1 21220659078919380.000000
Rwpos25_2 in25 sp2 21220659078919380.000000
Rwpos25_3 in25 sp3 22281692032865348.000000
Rwpos25_4 in25 sp4 21220659078919380.000000
Rwpos25_5 in25 sp5 22281692032865348.000000
Rwpos25_6 in25 sp6 21220659078919380.000000
Rwpos25_7 in25 sp7 21220659078919380.000000
Rwpos25_8 in25 sp8 21220659078919380.000000
Rwpos25_9 in25 sp9 22281692032865348.000000
Rwpos25_10 in25 sp10 21220659078919380.000000
Rwpos26_1 in26 sp1 22281692032865348.000000
Rwpos26_2 in26 sp2 21220659078919380.000000
Rwpos26_3 in26 sp3 22281692032865348.000000
Rwpos26_4 in26 sp4 22281692032865348.000000
Rwpos26_5 in26 sp5 21220659078919380.000000
Rwpos26_6 in26 sp6 21220659078919380.000000
Rwpos26_7 in26 sp7 21220659078919380.000000
Rwpos26_8 in26 sp8 22281692032865348.000000
Rwpos26_9 in26 sp9 21220659078919380.000000
Rwpos26_10 in26 sp10 22281692032865348.000000
Rwpos27_1 in27 sp1 21220659078919380.000000
Rwpos27_2 in27 sp2 21220659078919380.000000
Rwpos27_3 in27 sp3 21220659078919380.000000
Rwpos27_4 in27 sp4 21220659078919380.000000
Rwpos27_5 in27 sp5 21220659078919380.000000
Rwpos27_6 in27 sp6 21220659078919380.000000
Rwpos27_7 in27 sp7 22281692032865348.000000
Rwpos27_8 in27 sp8 22281692032865348.000000
Rwpos27_9 in27 sp9 22281692032865348.000000
Rwpos27_10 in27 sp10 22281692032865348.000000
Rwpos28_1 in28 sp1 21220659078919380.000000
Rwpos28_2 in28 sp2 22281692032865348.000000
Rwpos28_3 in28 sp3 21220659078919380.000000
Rwpos28_4 in28 sp4 22281692032865348.000000
Rwpos28_5 in28 sp5 21220659078919380.000000
Rwpos28_6 in28 sp6 22281692032865348.000000
Rwpos28_7 in28 sp7 21220659078919380.000000
Rwpos28_8 in28 sp8 21220659078919380.000000
Rwpos28_9 in28 sp9 21220659078919380.000000
Rwpos28_10 in28 sp10 22281692032865348.000000
Rwpos29_1 in29 sp1 21220659078919380.000000
Rwpos29_2 in29 sp2 21220659078919380.000000
Rwpos29_3 in29 sp3 21220659078919380.000000
Rwpos29_4 in29 sp4 22281692032865348.000000
Rwpos29_5 in29 sp5 21220659078919380.000000
Rwpos29_6 in29 sp6 21220659078919380.000000
Rwpos29_7 in29 sp7 21220659078919380.000000
Rwpos29_8 in29 sp8 22281692032865348.000000
Rwpos29_9 in29 sp9 21220659078919380.000000
Rwpos29_10 in29 sp10 21220659078919380.000000
Rwpos30_1 in30 sp1 22281692032865348.000000
Rwpos30_2 in30 sp2 22281692032865348.000000
Rwpos30_3 in30 sp3 22281692032865348.000000
Rwpos30_4 in30 sp4 21220659078919380.000000
Rwpos30_5 in30 sp5 22281692032865348.000000
Rwpos30_6 in30 sp6 22281692032865348.000000
Rwpos30_7 in30 sp7 21220659078919380.000000
Rwpos30_8 in30 sp8 21220659078919380.000000
Rwpos30_9 in30 sp9 21220659078919380.000000
Rwpos30_10 in30 sp10 21220659078919380.000000
Rwpos31_1 in31 sp1 21220659078919380.000000
Rwpos31_2 in31 sp2 21220659078919380.000000
Rwpos31_3 in31 sp3 22281692032865348.000000
Rwpos31_4 in31 sp4 21220659078919380.000000
Rwpos31_5 in31 sp5 21220659078919380.000000
Rwpos31_6 in31 sp6 21220659078919380.000000
Rwpos31_7 in31 sp7 21220659078919380.000000
Rwpos31_8 in31 sp8 22281692032865348.000000
Rwpos31_9 in31 sp9 22281692032865348.000000
Rwpos31_10 in31 sp10 21220659078919380.000000
Rwpos32_1 in32 sp1 22281692032865348.000000
Rwpos32_2 in32 sp2 21220659078919380.000000
Rwpos32_3 in32 sp3 21220659078919380.000000
Rwpos32_4 in32 sp4 21220659078919380.000000
Rwpos32_5 in32 sp5 22281692032865348.000000
Rwpos32_6 in32 sp6 21220659078919380.000000
Rwpos32_7 in32 sp7 21220659078919380.000000
Rwpos32_8 in32 sp8 21220659078919380.000000
Rwpos32_9 in32 sp9 22281692032865348.000000
Rwpos32_10 in32 sp10 22281692032865348.000000
Rwpos33_1 in33 sp1 21220659078919380.000000
Rwpos33_2 in33 sp2 21220659078919380.000000
Rwpos33_3 in33 sp3 22281692032865348.000000
Rwpos33_4 in33 sp4 22281692032865348.000000
Rwpos33_5 in33 sp5 21220659078919380.000000
Rwpos33_6 in33 sp6 21220659078919380.000000
Rwpos33_7 in33 sp7 21220659078919380.000000
Rwpos33_8 in33 sp8 21220659078919380.000000
Rwpos33_9 in33 sp9 22281692032865348.000000
Rwpos33_10 in33 sp10 21220659078919380.000000
Rwpos34_1 in34 sp1 21220659078919380.000000
Rwpos34_2 in34 sp2 22281692032865348.000000
Rwpos34_3 in34 sp3 21220659078919380.000000
Rwpos34_4 in34 sp4 21220659078919380.000000
Rwpos34_5 in34 sp5 21220659078919380.000000
Rwpos34_6 in34 sp6 21220659078919380.000000
Rwpos34_7 in34 sp7 21220659078919380.000000
Rwpos34_8 in34 sp8 22281692032865348.000000
Rwpos34_9 in34 sp9 21220659078919380.000000
Rwpos34_10 in34 sp10 22281692032865348.000000
Rwpos35_1 in35 sp1 21220659078919380.000000
Rwpos35_2 in35 sp2 22281692032865348.000000
Rwpos35_3 in35 sp3 21220659078919380.000000
Rwpos35_4 in35 sp4 22281692032865348.000000
Rwpos35_5 in35 sp5 21220659078919380.000000
Rwpos35_6 in35 sp6 22281692032865348.000000
Rwpos35_7 in35 sp7 22281692032865348.000000
Rwpos35_8 in35 sp8 21220659078919380.000000
Rwpos35_9 in35 sp9 21220659078919380.000000
Rwpos35_10 in35 sp10 21220659078919380.000000
Rwpos36_1 in36 sp1 21220659078919380.000000
Rwpos36_2 in36 sp2 21220659078919380.000000
Rwpos36_3 in36 sp3 21220659078919380.000000
Rwpos36_4 in36 sp4 22281692032865348.000000
Rwpos36_5 in36 sp5 21220659078919380.000000
Rwpos36_6 in36 sp6 22281692032865348.000000
Rwpos36_7 in36 sp7 22281692032865348.000000
Rwpos36_8 in36 sp8 21220659078919380.000000
Rwpos36_9 in36 sp9 21220659078919380.000000
Rwpos36_10 in36 sp10 21220659078919380.000000
Rwpos37_1 in37 sp1 21220659078919380.000000
Rwpos37_2 in37 sp2 21220659078919380.000000
Rwpos37_3 in37 sp3 21220659078919380.000000
Rwpos37_4 in37 sp4 21220659078919380.000000
Rwpos37_5 in37 sp5 21220659078919380.000000
Rwpos37_6 in37 sp6 21220659078919380.000000
Rwpos37_7 in37 sp7 21220659078919380.000000
Rwpos37_8 in37 sp8 22281692032865348.000000
Rwpos37_9 in37 sp9 21220659078919380.000000
Rwpos37_10 in37 sp10 22281692032865348.000000
Rwpos38_1 in38 sp1 22281692032865348.000000
Rwpos38_2 in38 sp2 22281692032865348.000000
Rwpos38_3 in38 sp3 22281692032865348.000000
Rwpos38_4 in38 sp4 22281692032865348.000000
Rwpos38_5 in38 sp5 21220659078919380.000000
Rwpos38_6 in38 sp6 21220659078919380.000000
Rwpos38_7 in38 sp7 21220659078919380.000000
Rwpos38_8 in38 sp8 21220659078919380.000000
Rwpos38_9 in38 sp9 21220659078919380.000000
Rwpos38_10 in38 sp10 21220659078919380.000000
Rwpos39_1 in39 sp1 21220659078919380.000000
Rwpos39_2 in39 sp2 22281692032865348.000000
Rwpos39_3 in39 sp3 22281692032865348.000000
Rwpos39_4 in39 sp4 21220659078919380.000000
Rwpos39_5 in39 sp5 21220659078919380.000000
Rwpos39_6 in39 sp6 21220659078919380.000000
Rwpos39_7 in39 sp7 21220659078919380.000000
Rwpos39_8 in39 sp8 22281692032865348.000000
Rwpos39_9 in39 sp9 22281692032865348.000000
Rwpos39_10 in39 sp10 21220659078919380.000000
Rwpos40_1 in40 sp1 21220659078919380.000000
Rwpos40_2 in40 sp2 21220659078919380.000000
Rwpos40_3 in40 sp3 22281692032865348.000000
Rwpos40_4 in40 sp4 21220659078919380.000000
Rwpos40_5 in40 sp5 21220659078919380.000000
Rwpos40_6 in40 sp6 21220659078919380.000000
Rwpos40_7 in40 sp7 22281692032865348.000000
Rwpos40_8 in40 sp8 21220659078919380.000000
Rwpos40_9 in40 sp9 21220659078919380.000000
Rwpos40_10 in40 sp10 21220659078919380.000000
Rwpos41_1 in41 sp1 21220659078919380.000000
Rwpos41_2 in41 sp2 21220659078919380.000000
Rwpos41_3 in41 sp3 21220659078919380.000000
Rwpos41_4 in41 sp4 21220659078919380.000000
Rwpos41_5 in41 sp5 21220659078919380.000000
Rwpos41_6 in41 sp6 22281692032865348.000000
Rwpos41_7 in41 sp7 22281692032865348.000000
Rwpos41_8 in41 sp8 21220659078919380.000000
Rwpos41_9 in41 sp9 22281692032865348.000000
Rwpos41_10 in41 sp10 22281692032865348.000000
Rwpos42_1 in42 sp1 21220659078919380.000000
Rwpos42_2 in42 sp2 21220659078919380.000000
Rwpos42_3 in42 sp3 21220659078919380.000000
Rwpos42_4 in42 sp4 22281692032865348.000000
Rwpos42_5 in42 sp5 22281692032865348.000000
Rwpos42_6 in42 sp6 21220659078919380.000000
Rwpos42_7 in42 sp7 22281692032865348.000000
Rwpos42_8 in42 sp8 21220659078919380.000000
Rwpos42_9 in42 sp9 21220659078919380.000000
Rwpos42_10 in42 sp10 21220659078919380.000000
Rwpos43_1 in43 sp1 21220659078919380.000000
Rwpos43_2 in43 sp2 21220659078919380.000000
Rwpos43_3 in43 sp3 21220659078919380.000000
Rwpos43_4 in43 sp4 22281692032865348.000000
Rwpos43_5 in43 sp5 22281692032865348.000000
Rwpos43_6 in43 sp6 21220659078919380.000000
Rwpos43_7 in43 sp7 22281692032865348.000000
Rwpos43_8 in43 sp8 22281692032865348.000000
Rwpos43_9 in43 sp9 21220659078919380.000000
Rwpos43_10 in43 sp10 21220659078919380.000000
Rwpos44_1 in44 sp1 22281692032865348.000000
Rwpos44_2 in44 sp2 21220659078919380.000000
Rwpos44_3 in44 sp3 21220659078919380.000000
Rwpos44_4 in44 sp4 21220659078919380.000000
Rwpos44_5 in44 sp5 21220659078919380.000000
Rwpos44_6 in44 sp6 21220659078919380.000000
Rwpos44_7 in44 sp7 22281692032865348.000000
Rwpos44_8 in44 sp8 22281692032865348.000000
Rwpos44_9 in44 sp9 21220659078919380.000000
Rwpos44_10 in44 sp10 22281692032865348.000000
Rwpos45_1 in45 sp1 21220659078919380.000000
Rwpos45_2 in45 sp2 21220659078919380.000000
Rwpos45_3 in45 sp3 22281692032865348.000000
Rwpos45_4 in45 sp4 22281692032865348.000000
Rwpos45_5 in45 sp5 21220659078919380.000000
Rwpos45_6 in45 sp6 22281692032865348.000000
Rwpos45_7 in45 sp7 21220659078919380.000000
Rwpos45_8 in45 sp8 21220659078919380.000000
Rwpos45_9 in45 sp9 21220659078919380.000000
Rwpos45_10 in45 sp10 21220659078919380.000000
Rwpos46_1 in46 sp1 21220659078919380.000000
Rwpos46_2 in46 sp2 21220659078919380.000000
Rwpos46_3 in46 sp3 22281692032865348.000000
Rwpos46_4 in46 sp4 21220659078919380.000000
Rwpos46_5 in46 sp5 21220659078919380.000000
Rwpos46_6 in46 sp6 22281692032865348.000000
Rwpos46_7 in46 sp7 22281692032865348.000000
Rwpos46_8 in46 sp8 21220659078919380.000000
Rwpos46_9 in46 sp9 21220659078919380.000000
Rwpos46_10 in46 sp10 22281692032865348.000000
Rwpos47_1 in47 sp1 22281692032865348.000000
Rwpos47_2 in47 sp2 21220659078919380.000000
Rwpos47_3 in47 sp3 22281692032865348.000000
Rwpos47_4 in47 sp4 22281692032865348.000000
Rwpos47_5 in47 sp5 21220659078919380.000000
Rwpos47_6 in47 sp6 21220659078919380.000000
Rwpos47_7 in47 sp7 21220659078919380.000000
Rwpos47_8 in47 sp8 22281692032865348.000000
Rwpos47_9 in47 sp9 22281692032865348.000000
Rwpos47_10 in47 sp10 21220659078919380.000000
Rwpos48_1 in48 sp1 21220659078919380.000000
Rwpos48_2 in48 sp2 22281692032865348.000000
Rwpos48_3 in48 sp3 21220659078919380.000000
Rwpos48_4 in48 sp4 21220659078919380.000000
Rwpos48_5 in48 sp5 22281692032865348.000000
Rwpos48_6 in48 sp6 21220659078919380.000000
Rwpos48_7 in48 sp7 22281692032865348.000000
Rwpos48_8 in48 sp8 21220659078919380.000000
Rwpos48_9 in48 sp9 21220659078919380.000000
Rwpos48_10 in48 sp10 21220659078919380.000000
Rwpos49_1 in49 sp1 22281692032865348.000000
Rwpos49_2 in49 sp2 21220659078919380.000000
Rwpos49_3 in49 sp3 21220659078919380.000000
Rwpos49_4 in49 sp4 21220659078919380.000000
Rwpos49_5 in49 sp5 21220659078919380.000000
Rwpos49_6 in49 sp6 22281692032865348.000000
Rwpos49_7 in49 sp7 22281692032865348.000000
Rwpos49_8 in49 sp8 21220659078919380.000000
Rwpos49_9 in49 sp9 21220659078919380.000000
Rwpos49_10 in49 sp10 21220659078919380.000000
Rwpos50_1 in50 sp1 21220659078919380.000000
Rwpos50_2 in50 sp2 22281692032865348.000000
Rwpos50_3 in50 sp3 21220659078919380.000000
Rwpos50_4 in50 sp4 21220659078919380.000000
Rwpos50_5 in50 sp5 21220659078919380.000000
Rwpos50_6 in50 sp6 21220659078919380.000000
Rwpos50_7 in50 sp7 22281692032865348.000000
Rwpos50_8 in50 sp8 21220659078919380.000000
Rwpos50_9 in50 sp9 21220659078919380.000000
Rwpos50_10 in50 sp10 22281692032865348.000000
Rwpos51_1 in51 sp1 22281692032865348.000000
Rwpos51_2 in51 sp2 21220659078919380.000000
Rwpos51_3 in51 sp3 21220659078919380.000000
Rwpos51_4 in51 sp4 22281692032865348.000000
Rwpos51_5 in51 sp5 21220659078919380.000000
Rwpos51_6 in51 sp6 21220659078919380.000000
Rwpos51_7 in51 sp7 21220659078919380.000000
Rwpos51_8 in51 sp8 22281692032865348.000000
Rwpos51_9 in51 sp9 21220659078919380.000000
Rwpos51_10 in51 sp10 21220659078919380.000000
Rwpos52_1 in52 sp1 21220659078919380.000000
Rwpos52_2 in52 sp2 21220659078919380.000000
Rwpos52_3 in52 sp3 22281692032865348.000000
Rwpos52_4 in52 sp4 21220659078919380.000000
Rwpos52_5 in52 sp5 21220659078919380.000000
Rwpos52_6 in52 sp6 22281692032865348.000000
Rwpos52_7 in52 sp7 21220659078919380.000000
Rwpos52_8 in52 sp8 22281692032865348.000000
Rwpos52_9 in52 sp9 21220659078919380.000000
Rwpos52_10 in52 sp10 21220659078919380.000000
Rwpos53_1 in53 sp1 21220659078919380.000000
Rwpos53_2 in53 sp2 22281692032865348.000000
Rwpos53_3 in53 sp3 21220659078919380.000000
Rwpos53_4 in53 sp4 21220659078919380.000000
Rwpos53_5 in53 sp5 22281692032865348.000000
Rwpos53_6 in53 sp6 21220659078919380.000000
Rwpos53_7 in53 sp7 21220659078919380.000000
Rwpos53_8 in53 sp8 22281692032865348.000000
Rwpos53_9 in53 sp9 21220659078919380.000000
Rwpos53_10 in53 sp10 22281692032865348.000000
Rwpos54_1 in54 sp1 21220659078919380.000000
Rwpos54_2 in54 sp2 21220659078919380.000000
Rwpos54_3 in54 sp3 22281692032865348.000000
Rwpos54_4 in54 sp4 22281692032865348.000000
Rwpos54_5 in54 sp5 21220659078919380.000000
Rwpos54_6 in54 sp6 22281692032865348.000000
Rwpos54_7 in54 sp7 21220659078919380.000000
Rwpos54_8 in54 sp8 22281692032865348.000000
Rwpos54_9 in54 sp9 21220659078919380.000000
Rwpos54_10 in54 sp10 21220659078919380.000000
Rwpos55_1 in55 sp1 21220659078919380.000000
Rwpos55_2 in55 sp2 21220659078919380.000000
Rwpos55_3 in55 sp3 21220659078919380.000000
Rwpos55_4 in55 sp4 21220659078919380.000000
Rwpos55_5 in55 sp5 21220659078919380.000000
Rwpos55_6 in55 sp6 22281692032865348.000000
Rwpos55_7 in55 sp7 21220659078919380.000000
Rwpos55_8 in55 sp8 21220659078919380.000000
Rwpos55_9 in55 sp9 22281692032865348.000000
Rwpos55_10 in55 sp10 22281692032865348.000000
Rwpos56_1 in56 sp1 21220659078919380.000000
Rwpos56_2 in56 sp2 21220659078919380.000000
Rwpos56_3 in56 sp3 22281692032865348.000000
Rwpos56_4 in56 sp4 22281692032865348.000000
Rwpos56_5 in56 sp5 22281692032865348.000000
Rwpos56_6 in56 sp6 22281692032865348.000000
Rwpos56_7 in56 sp7 21220659078919380.000000
Rwpos56_8 in56 sp8 22281692032865348.000000
Rwpos56_9 in56 sp9 21220659078919380.000000
Rwpos56_10 in56 sp10 21220659078919380.000000
Rwpos57_1 in57 sp1 21220659078919380.000000
Rwpos57_2 in57 sp2 21220659078919380.000000
Rwpos57_3 in57 sp3 22281692032865348.000000
Rwpos57_4 in57 sp4 21220659078919380.000000
Rwpos57_5 in57 sp5 21220659078919380.000000
Rwpos57_6 in57 sp6 21220659078919380.000000
Rwpos57_7 in57 sp7 21220659078919380.000000
Rwpos57_8 in57 sp8 21220659078919380.000000
Rwpos57_9 in57 sp9 22281692032865348.000000
Rwpos57_10 in57 sp10 22281692032865348.000000
Rwpos58_1 in58 sp1 21220659078919380.000000
Rwpos58_2 in58 sp2 21220659078919380.000000
Rwpos58_3 in58 sp3 22281692032865348.000000
Rwpos58_4 in58 sp4 21220659078919380.000000
Rwpos58_5 in58 sp5 22281692032865348.000000
Rwpos58_6 in58 sp6 21220659078919380.000000
Rwpos58_7 in58 sp7 21220659078919380.000000
Rwpos58_8 in58 sp8 21220659078919380.000000
Rwpos58_9 in58 sp9 21220659078919380.000000
Rwpos58_10 in58 sp10 22281692032865348.000000
Rwpos59_1 in59 sp1 21220659078919380.000000
Rwpos59_2 in59 sp2 22281692032865348.000000
Rwpos59_3 in59 sp3 22281692032865348.000000
Rwpos59_4 in59 sp4 21220659078919380.000000
Rwpos59_5 in59 sp5 21220659078919380.000000
Rwpos59_6 in59 sp6 22281692032865348.000000
Rwpos59_7 in59 sp7 21220659078919380.000000
Rwpos59_8 in59 sp8 21220659078919380.000000
Rwpos59_9 in59 sp9 21220659078919380.000000
Rwpos59_10 in59 sp10 21220659078919380.000000
Rwpos60_1 in60 sp1 22281692032865348.000000
Rwpos60_2 in60 sp2 22281692032865348.000000
Rwpos60_3 in60 sp3 21220659078919380.000000
Rwpos60_4 in60 sp4 21220659078919380.000000
Rwpos60_5 in60 sp5 21220659078919380.000000
Rwpos60_6 in60 sp6 21220659078919380.000000
Rwpos60_7 in60 sp7 22281692032865348.000000
Rwpos60_8 in60 sp8 21220659078919380.000000
Rwpos60_9 in60 sp9 21220659078919380.000000
Rwpos60_10 in60 sp10 21220659078919380.000000
Rwpos61_1 in61 sp1 21220659078919380.000000
Rwpos61_2 in61 sp2 21220659078919380.000000
Rwpos61_3 in61 sp3 21220659078919380.000000
Rwpos61_4 in61 sp4 21220659078919380.000000
Rwpos61_5 in61 sp5 22281692032865348.000000
Rwpos61_6 in61 sp6 22281692032865348.000000
Rwpos61_7 in61 sp7 21220659078919380.000000
Rwpos61_8 in61 sp8 22281692032865348.000000
Rwpos61_9 in61 sp9 22281692032865348.000000
Rwpos61_10 in61 sp10 21220659078919380.000000
Rwpos62_1 in62 sp1 21220659078919380.000000
Rwpos62_2 in62 sp2 22281692032865348.000000
Rwpos62_3 in62 sp3 22281692032865348.000000
Rwpos62_4 in62 sp4 21220659078919380.000000
Rwpos62_5 in62 sp5 21220659078919380.000000
Rwpos62_6 in62 sp6 21220659078919380.000000
Rwpos62_7 in62 sp7 22281692032865348.000000
Rwpos62_8 in62 sp8 22281692032865348.000000
Rwpos62_9 in62 sp9 22281692032865348.000000
Rwpos62_10 in62 sp10 21220659078919380.000000
Rwpos63_1 in63 sp1 21220659078919380.000000
Rwpos63_2 in63 sp2 22281692032865348.000000
Rwpos63_3 in63 sp3 21220659078919380.000000
Rwpos63_4 in63 sp4 21220659078919380.000000
Rwpos63_5 in63 sp5 21220659078919380.000000
Rwpos63_6 in63 sp6 22281692032865348.000000
Rwpos63_7 in63 sp7 22281692032865348.000000
Rwpos63_8 in63 sp8 22281692032865348.000000
Rwpos63_9 in63 sp9 21220659078919380.000000
Rwpos63_10 in63 sp10 21220659078919380.000000
Rwpos64_1 in64 sp1 21220659078919380.000000
Rwpos64_2 in64 sp2 21220659078919380.000000
Rwpos64_3 in64 sp3 21220659078919380.000000
Rwpos64_4 in64 sp4 21220659078919380.000000
Rwpos64_5 in64 sp5 22281692032865348.000000
Rwpos64_6 in64 sp6 21220659078919380.000000
Rwpos64_7 in64 sp7 21220659078919380.000000
Rwpos64_8 in64 sp8 21220659078919380.000000
Rwpos64_9 in64 sp9 21220659078919380.000000
Rwpos64_10 in64 sp10 21220659078919380.000000
Rwpos65_1 in65 sp1 22281692032865348.000000
Rwpos65_2 in65 sp2 21220659078919380.000000
Rwpos65_3 in65 sp3 22281692032865348.000000
Rwpos65_4 in65 sp4 21220659078919380.000000
Rwpos65_5 in65 sp5 21220659078919380.000000
Rwpos65_6 in65 sp6 21220659078919380.000000
Rwpos65_7 in65 sp7 21220659078919380.000000
Rwpos65_8 in65 sp8 21220659078919380.000000
Rwpos65_9 in65 sp9 22281692032865348.000000
Rwpos65_10 in65 sp10 21220659078919380.000000
Rwpos66_1 in66 sp1 21220659078919380.000000
Rwpos66_2 in66 sp2 22281692032865348.000000
Rwpos66_3 in66 sp3 21220659078919380.000000
Rwpos66_4 in66 sp4 22281692032865348.000000
Rwpos66_5 in66 sp5 22281692032865348.000000
Rwpos66_6 in66 sp6 21220659078919380.000000
Rwpos66_7 in66 sp7 21220659078919380.000000
Rwpos66_8 in66 sp8 22281692032865348.000000
Rwpos66_9 in66 sp9 21220659078919380.000000
Rwpos66_10 in66 sp10 21220659078919380.000000
Rwpos67_1 in67 sp1 21220659078919380.000000
Rwpos67_2 in67 sp2 21220659078919380.000000
Rwpos67_3 in67 sp3 22281692032865348.000000
Rwpos67_4 in67 sp4 21220659078919380.000000
Rwpos67_5 in67 sp5 21220659078919380.000000
Rwpos67_6 in67 sp6 22281692032865348.000000
Rwpos67_7 in67 sp7 22281692032865348.000000
Rwpos67_8 in67 sp8 21220659078919380.000000